Version 4
SHEET 1 880 680
WIRE 112 128 16 128
WIRE 256 128 176 128
WIRE 288 128 256 128
WIRE 256 208 256 192
WIRE 256 208 16 208
WIRE 288 208 256 208
WIRE 368 208 288 208
FLAG 288 208 0
SYMBOL cap 240 128 R0
SYMATTR InstName C1
SYMATTR Value {Cp}
SYMBOL ind 272 144 R270
WINDOW 0 32 56 VTop 2
WINDOW 3 5 56 VBottom 2
SYMATTR InstName L1
SYMATTR Value 1.049µ
SYMBOL res 352 112 R0
SYMATTR InstName R1
SYMATTR Value .6
SYMBOL voltage 16 112 R0
WINDOW 0 -38 4 Left 2
WINDOW 123 24 152 Left 2
WINDOW 39 24 124 Left 2
WINDOW 3 24 180 Left 2
SYMATTR InstName V1
SYMATTR Value2 AC 90
SYMATTR SpiceLine Rser=50
SYMATTR Value SINE()
SYMBOL cap 176 112 R90
WINDOW 0 -5 27 VBottom 2
WINDOW 3 32 32 VTop 2
SYMATTR InstName C3
SYMATTR Value {Cs}
TEXT 96 -24 Left 2 !.ac dec 100 1e7 2e7
TEXT 96 48 Left 2 !.param Cs=16.6p
TEXT 96 16 Left 2 !.param Cp=99.8p
