Version 4
SHEET 1 880 680
WIRE 128 128 16 128
WIRE 192 128 128 128
WIRE 288 128 256 128
WIRE 128 208 128 192
WIRE 128 208 16 208
WIRE 288 208 128 208
WIRE 368 208 288 208
FLAG 288 208 0
SYMBOL cap 112 128 R0
SYMATTR InstName C1
SYMATTR Value {Cp}
SYMBOL cap 256 112 R90
WINDOW 0 0 32 VBottom 2
WINDOW 3 32 32 VTop 2
SYMATTR InstName C2
SYMATTR Value {Cs}
SYMBOL ind 272 144 R270
WINDOW 0 32 56 VTop 2
WINDOW 3 5 56 VBottom 2
SYMATTR InstName L1
SYMATTR Value 460n
SYMBOL res 352 112 R0
SYMATTR InstName 60m
SYMATTR Value 300m
SYMBOL voltage 16 112 R0
WINDOW 123 24 152 Left 2
WINDOW 39 24 124 Left 2
SYMATTR Value2 AC 1
SYMATTR SpiceLine Rser=50
SYMATTR InstName V1
SYMATTR Value ""
TEXT 96 -24 Left 2 !.ac lin 100 1.0e7 2.0e7
TEXT 96 48 Left 2 !.param Cs=.233n
TEXT 96 16 Left 2 !.param Cp=5.67n
